** MATERIALS
** 
*Material, name=DP1000
*Elastic
210000., 0.3
*Plastic
1115.3873302383179,0.0
1131.3688231044923,0.0005
1144.072821402921,0.001
1154.172325088602,0.0015
1162.2021400114722,0.002
1168.5872547569065,0.0025
1173.6653905728388,0.003
1177.7049208845472,0.0035
1180.919111208094,0.004
1183.4774350334376,0.0045
1185.5145660989417,0.005
1187.1375241881317,0.0055
1188.4313536052819,0.006
1189.4636356302385,0.0065
1190.2880743837065,0.007
1190.9473463693241,0.0075
1191.4753648894678,0.008
1191.8990794848858,0.0085
1192.2399058765734,0.009
1192.5148622827357,0.0095
** ... 2531 like lines cut
*Density
 7.85e-09,
**