** MATERIALS
** 
*Material, name=DP1000
*Elastic
210000., 0.3
*Plastic
9107.907635659916,0.0
9112.279606178208,0.002
9116.651926328284,0.004
9121.024595998348,0.006
9125.397615076678,0.008
9129.770983451637,0.01
9134.144701011672,0.012
9138.51876764531,0.014
9142.893183241147,0.016
9147.267947687873,0.018
9151.643060874248,0.02
9156.01852268912,0.022
9160.39433302141,0.024
9164.770491760117,0.026
9169.146998794327,0.028
9173.523854013203,0.03
9177.901057305982,0.032
9182.278608561986,0.034
9186.656507670617,0.036
9191.034754521352,0.038
** ... 551 like lines cut
*Density
 7.85e-09,
**