** MATERIALS
** 
*Material, name=DP1000
*Elastic
210000., 0.3
*Plastic
1243.4720419723044,0.0
1734.5134720883489,0.01
1954.3598784014903,0.02
2060.7116128660855,0.03
2113.726162802216,0.04
2141.2715780257477,0.05
2156.494856657166,0.06
2165.6497115389466,0.07
2171.7340918743375,0.08
2176.200022604177,0.09
2179.761576116161,0.1
2182.7781285948918,0.11
2185.4368713731524,0.12
2187.8401623909085,0.13
2190.047629927192,0.14
2192.0966779031005,0.15
2194.012626164474,0.16
2195.8138382406364,0.17
2197.5143977323637,0.18
2199.1255661705723,0.19
** ... 185 like lines cut
*Density
 7.85e-09,
**